goiania_leste_dss/TR1/CTMT_5001990.dss
! ==============================================================================
! ALIMENTADOR CTMT_5001990 - GOIANIA LESTE-8
! Subestacao: Trafo TR1 (GOL-S-TRF-TR1) | Barra MT: 1783 -> PAC_INI: 84804365001990
! ==============================================================================

! 1. Disjuntor de Saida MT do Alimentador
new line.DJ_5001990 phases=3 bus1=1783 bus2=84804365001990 switch=y r1=1e-4 x1=1e-4 length=0.001 units=km

! 2. Linhas de Media Tensao (MT)
new line.52873519 phases=3 bus1=80437115001990.1.2.3 bus2=80434915001990.1.2.3 r1=1.551 x1=0.49 length=0.045787 units=km normamps=114.0
new line.52873520 phases=3 bus1=80437125001990.1.2.3 bus2=80437115001990.1.2.3 r1=1.551 x1=0.49 length=0.041148 units=km normamps=114.0
new line.52873521 phases=3 bus1=80435835001990.1.2.3 bus2=80437125001990.1.2.3 r1=1.551 x1=0.49 length=0.032481 units=km normamps=114.0
new line.52873522 phases=3 bus1=80435845001990.1.2.3 bus2=80435835001990.1.2.3 r1=1.551 x1=0.49 length=0.031157 units=km normamps=114.0
new line.52873523 phases=3 bus1=80435185001990.1.2.3 bus2=80435845001990.1.2.3 r1=1.551 x1=0.49 length=0.025186 units=km normamps=114.0
new line.52873524 phases=3 bus1=80435855001990.1.2.3 bus2=80437115001990.1.2.3 r1=1.551 x1=0.49 length=0.021336 units=km normamps=114.0
new line.52873525 phases=3 bus1=80435865001990.1.2.3 bus2=80435855001990.1.2.3 r1=1.551 x1=0.49 length=0.037048 units=km normamps=114.0
new line.52873526 phases=3 bus1=80434915001990.1.2.3 bus2=80434905001990.1.2.3 r1=1.551 x1=0.49 length=0.033868 units=km normamps=114.0
new line.52873527 phases=3 bus1=80434905001990.1.2.3 bus2=80434675001990.1.2.3 r1=1.551 x1=0.49 length=0.042527 units=km normamps=114.0
new line.52873528 phases=3 bus1=80434895001990.1.2.3 bus2=80434925001990.1.2.3 r1=0.975 x1=0.47 length=0.033495 units=km normamps=152.0
new line.52873529 phases=3 bus1=80434925001990.1.2.3 bus2=80434935001990.1.2.3 r1=0.975 x1=0.47 length=0.02651 units=km normamps=152.0
new line.52873530 phases=3 bus1=80434935001990.1.2.3 bus2=80434495001990.1.2.3 r1=0.975 x1=0.47 length=0.034861 units=km normamps=152.0
new line.52873531 phases=3 bus1=80434415001990.1.2.3 bus2=95203995001990.1.2.3 r1=0.195 x1=0.4 length=0.006334 units=km normamps=419.0
new line.52873532 phases=3 bus1=80435435001990.1.2.3 bus2=80435425001990.1.2.3 r1=0.188 x1=0.26 length=0.053788 units=km normamps=525.0
new line.52873533 phases=3 bus1=80435425001990.1.2.3 bus2=80435415001990.1.2.3 r1=0.188 x1=0.26 length=0.024584 units=km normamps=525.0
new line.52873534 phases=3 bus1=80434325001990.1.2.3 bus2=80434075001990.1.2.3 r1=0.195 x1=0.4 length=0.028272 units=km normamps=419.0
new line.52873535 phases=3 bus1=80434335001990.1.2.3 bus2=80434325001990.1.2.3 r1=0.195 x1=0.4 length=0.034282 units=km normamps=419.0
new line.52873536 phases=3 bus1=80434425001990.1.2.3 bus2=80434415001990.1.2.3 r1=0.195 x1=0.4 length=0.016487 units=km normamps=419.0
new line.52873537 phases=3 bus1=80434445001990.1.2.3 bus2=80434425001990.1.2.3 r1=0.195 x1=0.4 length=0.037501 units=km normamps=419.0
new line.52873538 phases=3 bus1=80434435001990.1.2.3 bus2=80434445001990.1.2.3 r1=0.195 x1=0.4 length=0.013822 units=km normamps=419.0
new line.52873539 phases=3 bus1=80434445001990.1.2.3 bus2=80434455001990.1.2.3 r1=0.195 x1=0.4 length=0.015098 units=km normamps=419.0
new line.52873540 phases=3 bus1=80434455001990.1.2.3 bus2=80434465001990.1.2.3 r1=0.195 x1=0.4 length=0.032738 units=km normamps=419.0
new line.52873541 phases=3 bus1=80434465001990.1.2.3 bus2=80434475001990.1.2.3 r1=0.195 x1=0.4 length=0.037506 units=km normamps=419.0
new line.52873542 phases=3 bus1=80434475001990.1.2.3 bus2=80434335001990.1.2.3 r1=0.195 x1=0.4 length=0.043683 units=km normamps=419.0
new line.52873543 phases=3 bus1=80434485001990.1.2.3 bus2=80434435001990B.1.2.3 r1=1.551 x1=0.49 length=0.024426 units=km normamps=114.0
new line.52873544 phases=3 bus1=80434495001990.1.2.3 bus2=80434485001990.1.2.3 r1=1.551 x1=0.49 length=0.026821 units=km normamps=114.0
new line.52873545 phases=3 bus1=80434525001990.1.2.3 bus2=80434445001990.1.2.3 r1=0.195 x1=0.4 length=0.023143 units=km normamps=419.0
new line.52873546 phases=3 bus1=80433635001990.1.2.3 bus2=80433615001990.1.2.3 r1=0.195 x1=0.4 length=0.063577 units=km normamps=419.0
new line.52873547 phases=3 bus1=80433635001990.1.2.3 bus2=80433695001990.1.2.3 r1=0.195 x1=0.4 length=0.027913 units=km normamps=419.0
new line.52873548 phases=3 bus1=80434895001990.1.2.3 bus2=80434675001990.1.2.3 r1=0.975 x1=0.47 length=0.030908 units=km normamps=152.0
new line.52873549 phases=3 bus1=80433695001990.1.2.3 bus2=80433705001990.1.2.3 r1=0.195 x1=0.4 length=0.034359 units=km normamps=419.0
new line.52873550 phases=3 bus1=80433705001990.1.2.3 bus2=80433715001990.1.2.3 r1=0.195 x1=0.4 length=0.025564 units=km normamps=419.0
new line.52873551 phases=3 bus1=80433715001990.1.2.3 bus2=80433725001990.1.2.3 r1=0.195 x1=0.4 length=0.036816 units=km normamps=419.0
new line.52873552 phases=3 bus1=80433725001990.1.2.3 bus2=80433765001990.1.2.3 r1=0.195 x1=0.4 length=0.007444 units=km normamps=419.0
new line.52873553 phases=3 bus1=80433765001990.1.2.3 bus2=80433755001990.1.2.3 r1=0.195 x1=0.4 length=0.035322 units=km normamps=419.0
new line.52873554 phases=3 bus1=80433765001990.1.2.3 bus2=80433745001990.1.2.3 r1=0.195 x1=0.4 length=0.027533 units=km normamps=419.0
new line.52873555 phases=3 bus1=80433815001990.1.2.3 bus2=93432675001990.1.2.3 r1=0.195 x1=0.4 length=0.022211 units=km normamps=419.0
new line.52873557 phases=3 bus1=80433815001990B.1.2.3 bus2=80433845001990.1.2.3 r1=1.551 x1=0.49 length=0.028612 units=km normamps=114.0
new line.52873558 phases=3 bus1=80433985001990.1.2.3 bus2=80433995001990.1.2.3 r1=0.975 x1=0.47 length=0.045404 units=km normamps=152.0
new line.52873559 phases=3 bus1=80433995001990.1.2.3 bus2=80434005001990.1.2.3 r1=0.975 x1=0.47 length=0.026841 units=km normamps=152.0
new line.52873560 phases=3 bus1=80434015001990.1.2.3 bus2=80433985001990.1.2.3 r1=0.975 x1=0.47 length=0.030351 units=km normamps=152.0
new line.52873561 phases=3 bus1=80434025001990B.1.2.3 bus2=80434015001990.1.2.3 r1=0.975 x1=0.47 length=0.033744 units=km normamps=152.0
new line.52873562 phases=3 bus1=80435135001990.1.2.3 bus2=80435125001990.1.2.3 r1=1.551 x1=0.49 length=0.023928 units=km normamps=114.0
new line.52873563 phases=3 bus1=80435145001990.1.2.3 bus2=80435135001990.1.2.3 r1=1.551 x1=0.49 length=0.032092 units=km normamps=114.0
new line.52873564 phases=3 bus1=80435145001990.1.2.3 bus2=80435175001990.1.2.3 r1=1.551 x1=0.49 length=0.017493 units=km normamps=114.0
new line.52873565 phases=3 bus1=80435175001990.1.2.3 bus2=80435185001990.1.2.3 r1=1.551 x1=0.49 length=0.036524 units=km normamps=114.0
new line.52873566 phases=3 bus1=80434095001990.1.2.3 bus2=80434115001990.1.2.3 r1=0.195 x1=0.4 length=0.040739 units=km normamps=419.0
new line.52873567 phases=3 bus1=80433765001990.1.2.3 bus2=80433735001990.1.2.3 r1=0.195 x1=0.4 length=0.00595 units=km normamps=419.0
new line.52873568 phases=3 bus1=80434115001990.1.2.3 bus2=80433745001990.1.2.3 r1=0.195 x1=0.4 length=0.029777 units=km normamps=419.0
new line.52873569 phases=3 bus1=80434135001990.1.2.3 bus2=80434125001990.1.2.3 r1=1.551 x1=0.49 length=0.032727 units=km normamps=114.0
new line.52873570 phases=3 bus1=80434125001990.1.2.3 bus2=80434145001990.1.2.3 r1=1.551 x1=0.49 length=0.014461 units=km normamps=114.0
new line.52873571 phases=3 bus1=80434095001990.1.2.3 bus2=80434145001990.1.2.3 r1=0.195 x1=0.4 length=0.006467 units=km normamps=419.0
new line.52873572 phases=3 bus1=80434145001990.1.2.3 bus2=80434065001990.1.2.3 r1=0.195 x1=0.4 length=0.045935 units=km normamps=419.0
new line.52873573 phases=3 bus1=80434065001990.1.2.3 bus2=80434075001990.1.2.3 r1=0.195 x1=0.4 length=0.029102 units=km normamps=419.0
new line.52873574 phases=3 bus1=80434025001990.1.2.3 bus2=80434145001990.1.2.3 r1=1.551 x1=0.49 length=0.039893 units=km normamps=114.0
new line.52873575 phases=3 bus1=80434085001990.1.2.3 bus2=80434155001990.1.2.3 r1=1.551 x1=0.49 length=0.032855 units=km normamps=114.0
new line.52873576 phases=3 bus1=80434065001990B.1.2.3 bus2=80434085001990.1.2.3 r1=1.551 x1=0.49 length=0.011925 units=km normamps=114.0
new line.52873577 phases=3 bus1=80434175001990.1.2.3 bus2=80434135001990B.1.2.3 r1=1.551 x1=0.49 length=0.029725 units=km normamps=114.0
new line.52873578 phases=3 bus1=80434185001990.1.2.3 bus2=80434175001990.1.2.3 r1=1.551 x1=0.49 length=0.040953 units=km normamps=114.0
new line.52873579 phases=3 bus1=80434195001990.1.2.3 bus2=80434185001990.1.2.3 r1=1.551 x1=0.49 length=0.030682 units=km normamps=114.0
new line.52873580 phases=3 bus1=80434265001990.1.2.3 bus2=80434245001990.1.2.3 r1=0.975 x1=0.47 length=0.02922 units=km normamps=152.0
new line.52873581 phases=3 bus1=80434155001990.1.2.3 bus2=80434265001990.1.2.3 r1=1.551 x1=0.49 length=0.048103 units=km normamps=114.0
new line.52873582 phases=3 bus1=80435405001990.1.2.3 bus2=80435385001990.1.2.3 r1=0.195 x1=0.4 length=0.032204 units=km normamps=419.0
new line.52873583 phases=3 bus1=80435415001990.1.2.3 bus2=87229005001990.1.2.3 r1=0.188 x1=0.26 length=0.023492 units=km normamps=525.0
new line.52873584 phases=3 bus1=80435455001990.1.2.3 bus2=80435445001990.1.2.3 r1=0.195 x1=0.4 length=0.022704 units=km normamps=419.0
new line.52873585 phases=3 bus1=80435465001990.1.2.3 bus2=80435455001990.1.2.3 r1=0.195 x1=0.4 length=0.032738 units=km normamps=419.0
new line.52873586 phases=3 bus1=80435475001990.1.2.3 bus2=80435465001990.1.2.3 r1=0.195 x1=0.4 length=0.011658 units=km normamps=419.0
new line.52873587 phases=3 bus1=80435475001990.1.2.3 bus2=80435485001990.1.2.3 r1=0.195 x1=0.4 length=0.047134 units=km normamps=419.0
new line.52873588 phases=3 bus1=80435485001990.1.2.3 bus2=95330225001990.1.2.3 r1=0.195 x1=0.4 length=0.013375 units=km normamps=419.0
new line.52873589 phases=3 bus1=80435495001990.1.2.3 bus2=80435505001990.1.2.3 r1=0.195 x1=0.4 length=0.035903 units=km normamps=419.0
new line.52873590 phases=3 bus1=80435495001990.1.2.3 bus2=80435525001990.1.2.3 r1=0.195 x1=0.4 length=0.031314 units=km normamps=419.0
new line.52873591 phases=3 bus1=80435525001990.1.2.3 bus2=80435535001990.1.2.3 r1=0.195 x1=0.4 length=0.025848 units=km normamps=419.0
new line.52873592 phases=3 bus1=80435535001990.1.2.3 bus2=80433615001990.1.2.3 r1=0.195 x1=0.4 length=0.047113 units=km normamps=419.0
new line.52873593 phases=3 bus1=80435815001990.1.2.3 bus2=80435145001990.1.2.3 r1=0.975 x1=0.47 length=0.030396 units=km normamps=152.0
new line.52873594 phases=3 bus1=80435825001990.1.2.3 bus2=80435815001990.1.2.3 r1=0.975 x1=0.47 length=0.029654 units=km normamps=152.0
new line.52873595 phases=3 bus1=80437005001990.1.2.3 bus2=80435825001990.1.2.3 r1=0.975 x1=0.47 length=0.003836 units=km normamps=152.0
new line.52873596 phases=3 bus1=80438055001990.1.2.3 bus2=80439735001990.1.2.3 r1=1.551 x1=0.49 length=0.009701 units=km normamps=114.0
new line.52873597 phases=3 bus1=80438065001990.1.2.3 bus2=80439735001990.1.2.3 r1=1.551 x1=0.49 length=0.015098 units=km normamps=114.0
new line.52873598 phases=3 bus1=80438095001990.1.2.3 bus2=80439735001990.1.2.3 r1=1.551 x1=0.49 length=0.023719 units=km normamps=114.0
new line.52873599 phases=3 bus1=80439735001990.1.2.3 bus2=80438085001990.1.2.3 r1=1.551 x1=0.49 length=0.012305 units=km normamps=114.0
new line.52873600 phases=3 bus1=80436145001990.1.2.3 bus2=80439765001990.1.2.3 r1=0.195 x1=0.4 length=0.015874 units=km normamps=419.0
new line.52873601 phases=3 bus1=80439765001990.1.2.3 bus2=80436155001990.1.2.3 r1=0.195 x1=0.4 length=0.013908 units=km normamps=419.0
new line.52873602 phases=3 bus1=80439765001990.1.2.3 bus2=80439775001990.1.2.3 r1=0.195 x1=0.4 length=0.007993 units=km normamps=419.0
new line.52873603 phases=3 bus1=80438015001990.1.2.3 bus2=80437985001990.1.2.3 r1=1.551 x1=0.49 length=0.047082 units=km normamps=114.0
new line.52873604 phases=3 bus1=80436145001990.1.2.3 bus2=80436135001990.1.2.3 r1=0.195 x1=0.4 length=0.028068 units=km normamps=419.0
new line.52873605 phases=3 bus1=80436165001990.1.2.3 bus2=80436155001990.1.2.3 r1=0.195 x1=0.4 length=0.027285 units=km normamps=419.0
new line.52873606 phases=3 bus1=80436175001990B.1.2.3 bus2=80436165001990.1.2.3 r1=0.195 x1=0.4 length=0.01398 units=km normamps=419.0
new line.52873607 phases=3 bus1=80436225001990.1.2.3 bus2=80436215001990.1.2.3 r1=0.195 x1=0.4 length=0.028279 units=km normamps=419.0
new line.52873608 phases=3 bus1=80436235001990.1.2.3 bus2=80436225001990.1.2.3 r1=0.195 x1=0.4 length=0.01065 units=km normamps=419.0
new line.52873609 phases=3 bus1=80436245001990.1.2.3 bus2=80436225001990.1.2.3 r1=0.195 x1=0.4 length=0.01464 units=km normamps=419.0
new line.52873610 phases=3 bus1=80436255001990.1.2.3 bus2=80436245001990.1.2.3 r1=0.195 x1=0.4 length=0.028697 units=km normamps=419.0
new line.52873611 phases=3 bus1=80436265001990.1.2.3 bus2=80436245001990.1.2.3 r1=0.195 x1=0.4 length=0.010675 units=km normamps=419.0
new line.52873612 phases=3 bus1=80436275001990.1.2.3 bus2=80436265001990.1.2.3 r1=0.195 x1=0.4 length=0.030279 units=km normamps=419.0
new line.52873613 phases=3 bus1=80436285001990.1.2.3 bus2=80436275001990.1.2.3 r1=0.195 x1=0.4 length=0.036709 units=km normamps=419.0
new line.52873614 phases=3 bus1=80436295001990.1.2.3 bus2=80436285001990.1.2.3 r1=0.195 x1=0.4 length=0.033289 units=km normamps=419.0
new line.52873615 phases=3 bus1=80436135001990.1.2.3 bus2=80436295001990.1.2.3 r1=0.195 x1=0.4 length=0.035961 units=km normamps=419.0
new line.52873616 phases=3 bus1=80436315001990.1.2.3 bus2=80436135001990.1.2.3 r1=0.195 x1=0.4 length=0.023555 units=km normamps=419.0
new line.52873617 phases=3 bus1=80439175001990.1.2.3 bus2=80439165001990.1.2.3 r1=0.195 x1=0.4 length=0.025067 units=km normamps=419.0
new line.52873618 phases=3 bus1=80439185001990.1.2.3 bus2=80439175001990.1.2.3 r1=0.195 x1=0.4 length=0.033804 units=km normamps=419.0
new line.52873619 phases=3 bus1=80439195001990.1.2.3 bus2=80439185001990.1.2.3 r1=0.195 x1=0.4 length=0.041613 units=km normamps=419.0
new line.52873620 phases=3 bus1=80439205001990.1.2.3 bus2=80439195001990.1.2.3 r1=0.195 x1=0.4 length=0.033211 units=km normamps=419.0
new line.52873621 phases=3 bus1=80439245001990.1.2.3 bus2=80439205001990.1.2.3 r1=0.195 x1=0.4 length=0.040541 units=km normamps=419.0
new line.52873622 phases=3 bus1=80439255001990.1.2.3 bus2=80439245001990.1.2.3 r1=0.195 x1=0.4 length=0.035119 units=km normamps=419.0
new line.52873623 phases=3 bus1=80436335001990.1.2.3 bus2=80436285001990.1.2.3 r1=1.551 x1=0.49 length=0.023457 units=km normamps=114.0
new line.52873624 phases=3 bus1=80436395001990.1.2.3 bus2=80436215001990.1.2.3 r1=0.195 x1=0.4 length=0.040925 units=km normamps=419.0
new line.52873625 phases=3 bus1=80436395001990.1.2.3 bus2=80436385001990.1.2.3 r1=1.551 x1=0.49 length=0.022187 units=km normamps=114.0
new line.52873626 phases=3 bus1=80436545001990.1.2.3 bus2=80436535001990.1.2.3 r1=1.551 x1=0.49 length=0.035438 units=km normamps=114.0
new line.52873627 phases=3 bus1=80436555001990.1.2.3 bus2=80436545001990.1.2.3 r1=1.551 x1=0.49 length=0.034817 units=km normamps=114.0
new line.52873628 phases=3 bus1=80436565001990B.1.2.3 bus2=80436555001990.1.2.3 r1=1.551 x1=0.49 length=0.026163 units=km normamps=114.0
new line.52873629 phases=3 bus1=80436615001990B.1.2.3 bus2=80436155001990.1.2.3 r1=0.195 x1=0.4 length=0.032722 units=km normamps=419.0
new line.52873630 phases=3 bus1=80436625001990.1.2.3 bus2=80436615001990.1.2.3 r1=0.195 x1=0.4 length=0.025584 units=km normamps=419.0
new line.52873631 phases=3 bus1=80436635001990.1.2.3 bus2=80436625001990.1.2.3 r1=0.195 x1=0.4 length=0.026248 units=km normamps=419.0
new line.52873632 phases=3 bus1=80436655001990.1.2.3 bus2=80436635001990.1.2.3 r1=0.195 x1=0.4 length=0.028289 units=km normamps=419.0
new line.52873633 phases=3 bus1=80436585001990.1.2.3 bus2=80436655001990.1.2.3 r1=1.551 x1=0.49 length=0.03667 units=km normamps=114.0
new line.52873634 phases=3 bus1=80436665001990.1.2.3 bus2=80436655001990.1.2.3 r1=0.195 x1=0.4 length=0.023718 units=km normamps=419.0
new line.52873635 phases=3 bus1=80436675001990.1.2.3 bus2=80436665001990.1.2.3 r1=0.195 x1=0.4 length=0.024626 units=km normamps=419.0
new line.52873636 phases=3 bus1=80436685001990.1.2.3 bus2=80436675001990.1.2.3 r1=0.195 x1=0.4 length=0.021837 units=km normamps=419.0
new line.52873637 phases=3 bus1=80436685001990.1.2.3 bus2=80436565001990.1.2.3 r1=1.551 x1=0.49 length=0.035657 units=km normamps=114.0
new line.52873638 phases=3 bus1=80435905001990.1.2.3 bus2=80436685001990.1.2.3 r1=0.195 x1=0.4 length=0.027508 units=km normamps=419.0
new line.52873639 phases=3 bus1=80436725001990.1.2.3 bus2=80436715001990.1.2.3 r1=0.975 x1=0.47 length=0.025066 units=km normamps=152.0
new line.52873640 phases=3 bus1=80436745001990.1.2.3 bus2=80436725001990.1.2.3 r1=0.975 x1=0.47 length=0.024306 units=km normamps=152.0
new line.52873641 phases=3 bus1=80439265001990.1.2.3 bus2=80439255001990.1.2.3 r1=0.195 x1=0.4 length=0.037256 units=km normamps=419.0
new line.52873642 phases=3 bus1=80439275001990.1.2.3 bus2=80439265001990.1.2.3 r1=0.195 x1=0.4 length=0.03324 units=km normamps=419.0
new line.52873643 phases=3 bus1=80438795001990.1.2.3 bus2=80439275001990.1.2.3 r1=0.195 x1=0.4 length=0.032876 units=km normamps=419.0
new line.52873644 phases=3 bus1=80439345001990.1.2.3 bus2=80439335001990.1.2.3 r1=1.551 x1=0.49 length=0.032384 units=km normamps=114.0
new line.52873645 phases=3 bus1=80439345001990.1.2.3 bus2=80439165001990.1.2.3 r1=0.195 x1=0.4 length=0.037702 units=km normamps=419.0
new line.52873646 phases=3 bus1=80435985001990.1.2.3 bus2=80439345001990.1.2.3 r1=0.195 x1=0.4 length=0.027749 units=km normamps=419.0
new line.52873647 phases=3 bus1=80436755001990.1.2.3 bus2=80436745001990.1.2.3 r1=0.975 x1=0.47 length=0.036239 units=km normamps=152.0
new line.52873648 phases=3 bus1=80436765001990.1.2.3 bus2=80436755001990.1.2.3 r1=0.975 x1=0.47 length=0.007608 units=km normamps=152.0
new line.52873649 phases=3 bus1=80434005001990.1.2.3 bus2=80436755001990.1.2.3 r1=0.975 x1=0.47 length=0.023308 units=km normamps=152.0
new line.52873650 phases=3 bus1=80436825001990.1.2.3 bus2=80436815001990.1.2.3 r1=0.975 x1=0.47 length=0.023166 units=km normamps=152.0
new line.52873651 phases=3 bus1=80436975001990.1.2.3 bus2=80436815001990.1.2.3 r1=0.975 x1=0.47 length=0.032357 units=km normamps=152.0
new line.52873652 phases=3 bus1=80436985001990.1.2.3 bus2=80436975001990.1.2.3 r1=0.975 x1=0.47 length=0.024589 units=km normamps=152.0
new line.52873653 phases=3 bus1=80436995001990.1.2.3 bus2=80436985001990.1.2.3 r1=0.975 x1=0.47 length=0.031174 units=km normamps=152.0
new line.52873654 phases=3 bus1=80437785001990.1.2.3 bus2=80436995001990.1.2.3 r1=0.975 x1=0.47 length=0.010265 units=km normamps=152.0
new line.52873655 phases=3 bus1=80437795001990.1.2.3 bus2=80436995001990.1.2.3 r1=0.975 x1=0.47 length=0.029812 units=km normamps=152.0
new line.52873656 phases=3 bus1=80436745001990.1.2.3 bus2=80437795001990.1.2.3 r1=0.975 x1=0.47 length=0.008244 units=km normamps=152.0
new line.52873657 phases=3 bus1=80437805001990.1.2.3 bus2=80436635001990.1.2.3 r1=1.551 x1=0.49 length=0.039069 units=km normamps=114.0
new line.52873658 phases=3 bus1=80437815001990.1.2.3 bus2=80437805001990B.1.2.3 r1=1.551 x1=0.49 length=0.024804 units=km normamps=114.0
new line.52873659 phases=3 bus1=80437825001990.1.2.3 bus2=80437815001990.1.2.3 r1=1.551 x1=0.49 length=0.034593 units=km normamps=114.0
new line.52873660 phases=3 bus1=80436395001990.1.2.3 bus2=80437885001990.1.2.3 r1=0.195 x1=0.4 length=0.017141 units=km normamps=419.0
new line.52873661 phases=3 bus1=80437885001990.1.2.3 bus2=80437895001990.1.2.3 r1=0.195 x1=0.4 length=0.024306 units=km normamps=419.0
new line.52873662 phases=3 bus1=80437895001990.1.2.3 bus2=80437135001990.1.2.3 r1=0.195 x1=0.4 length=0.036476 units=km normamps=419.0
new line.52873663 phases=3 bus1=80437135001990.1.2.3 bus2=80437145001990.1.2.3 r1=0.195 x1=0.4 length=0.0401 units=km normamps=419.0
new line.52873665 phases=3 bus1=80437145001990.1.2.3 bus2=80437175001990.1.2.3 r1=0.195 x1=0.4 length=0.029336 units=km normamps=419.0
new line.52873666 phases=3 bus1=80437175001990.1.2.3 bus2=80437185001990.1.2.3 r1=0.195 x1=0.4 length=0.039942 units=km normamps=419.0
new line.52873667 phases=3 bus1=80437215001990.1.2.3 bus2=80437235001990.1.2.3 r1=0.975 x1=0.47 length=0.017023 units=km normamps=152.0
new line.52873668 phases=3 bus1=80437295001990.1.2.3 bus2=80437215001990.1.2.3 r1=0.975 x1=0.47 length=0.039932 units=km normamps=152.0
new line.52873669 phases=3 bus1=80437305001990.1.2.3 bus2=80437295001990.1.2.3 r1=0.975 x1=0.47 length=0.0377 units=km normamps=152.0
new line.52873670 phases=3 bus1=80437315001990.1.2.3 bus2=80437305001990.1.2.3 r1=0.975 x1=0.47 length=0.028282 units=km normamps=152.0
new line.52873671 phases=3 bus1=80437315001990.1.2.3 bus2=80437325001990.1.2.3 r1=0.975 x1=0.47 length=0.033292 units=km normamps=152.0
new line.52873672 phases=3 bus1=80437505001990.1.2.3 bus2=80437495001990.1.2.3 r1=0.975 x1=0.47 length=0.031796 units=km normamps=152.0
new line.52873673 phases=3 bus1=80437505001990.1.2.3 bus2=80437515001990.1.2.3 r1=0.975 x1=0.47 length=0.037945 units=km normamps=152.0
new line.52873674 phases=3 bus1=80437515001990.1.2.3 bus2=80437525001990.1.2.3 r1=0.975 x1=0.47 length=0.024068 units=km normamps=152.0
new line.52873675 phases=3 bus1=80437525001990.1.2.3 bus2=80437325001990.1.2.3 r1=0.975 x1=0.47 length=0.038928 units=km normamps=152.0
new line.52873676 phases=3 bus1=80437185001990.1.2.3 bus2=80437575001990.1.2.3 r1=0.195 x1=0.4 length=0.027289 units=km normamps=419.0
new line.52873677 phases=3 bus1=80437575001990B.1.2.3 bus2=80437585001990.1.2.3 r1=0.195 x1=0.4 length=0.031712 units=km normamps=419.0
new line.52873678 phases=3 bus1=80437585001990.1.2.3 bus2=80437595001990.1.2.3 r1=0.195 x1=0.4 length=0.02851 units=km normamps=419.0
new line.52873679 phases=3 bus1=80437595001990.1.2.3 bus2=80437615001990.1.2.3 r1=0.195 x1=0.4 length=0.031669 units=km normamps=419.0
new line.52873680 phases=3 bus1=80437625001990.1.2.3 bus2=80437615001990.1.2.3 r1=0.195 x1=0.4 length=0.020309 units=km normamps=419.0
new line.52873681 phases=3 bus1=80437615001990.1.2.3 bus2=80437635001990.1.2.3 r1=0.195 x1=0.4 length=0.034597 units=km normamps=419.0
new line.52873682 phases=3 bus1=80437635001990B.1.2.3 bus2=80437495001990.1.2.3 r1=0.975 x1=0.47 length=0.013648 units=km normamps=152.0
new line.52873683 phases=3 bus1=80437635001990.1.2.3 bus2=80437645001990.1.2.3 r1=0.195 x1=0.4 length=0.064368 units=km normamps=419.0
new line.52873684 phases=3 bus1=80437645001990.1.2.3 bus2=80437655001990.1.2.3 r1=0.195 x1=0.4 length=0.031573 units=km normamps=419.0
new line.52873685 phases=3 bus1=80437655001990.1.2.3 bus2=80437665001990.1.2.3 r1=0.195 x1=0.4 length=0.028738 units=km normamps=419.0
new line.52873686 phases=3 bus1=80437665001990.1.2.3 bus2=80437675001990.1.2.3 r1=0.195 x1=0.4 length=0.027292 units=km normamps=419.0
new line.52873687 phases=3 bus1=80437675001990.1.2.3 bus2=80437685001990.1.2.3 r1=0.195 x1=0.4 length=0.040019 units=km normamps=419.0
new line.52873688 phases=3 bus1=80437685001990.1.2.3 bus2=80437695001990.1.2.3 r1=0.195 x1=0.4 length=0.048754 units=km normamps=419.0
new line.52873689 phases=3 bus1=80439485001990.1.2.3 bus2=80439495001990.1.2.3 r1=1.551 x1=0.49 length=0.010262 units=km normamps=114.0
new line.52873690 phases=3 bus1=80439505001990.1.2.3 bus2=80439495001990.1.2.3 r1=1.551 x1=0.49 length=0.019903 units=km normamps=114.0
new line.52873691 phases=3 bus1=80439495001990.1.2.3 bus2=80439515001990.1.2.3 r1=1.551 x1=0.49 length=0.023335 units=km normamps=114.0
new line.52873692 phases=3 bus1=80439495001990.1.2.3 bus2=80439525001990.1.2.3 r1=1.551 x1=0.49 length=0.010491 units=km normamps=114.0
new line.52873693 phases=3 bus1=80439525001990.1.2.3 bus2=80439535001990.1.2.3 r1=1.551 x1=0.49 length=0.026381 units=km normamps=114.0
new line.52873694 phases=3 bus1=80439545001990.1.2.3 bus2=80439485001990.1.2.3 r1=1.551 x1=0.49 length=0.031805 units=km normamps=114.0
new line.52873695 phases=3 bus1=80437915001990.1.2.3 bus2=80439545001990.1.2.3 r1=1.551 x1=0.49 length=0.043391 units=km normamps=114.0
new line.52873696 phases=3 bus1=80437925001990.1.2.3 bus2=80437915001990.1.2.3 r1=1.551 x1=0.49 length=0.022978 units=km normamps=114.0
new line.52873697 phases=3 bus1=80437935001990.1.2.3 bus2=80437925001990.1.2.3 r1=1.551 x1=0.49 length=0.02791 units=km normamps=114.0
new line.52873698 phases=3 bus1=80437945001990.1.2.3 bus2=80437935001990.1.2.3 r1=1.551 x1=0.49 length=0.008244 units=km normamps=114.0
new line.52873699 phases=3 bus1=80439415001990.1.2.3 bus2=80437945001990.1.2.3 r1=1.551 x1=0.49 length=0.023316 units=km normamps=114.0
new line.52873700 phases=3 bus1=80437945001990.1.2.3 bus2=80437955001990.1.2.3 r1=1.551 x1=0.49 length=0.008857 units=km normamps=114.0
new line.52873701 phases=3 bus1=80437965001990.1.2.3 bus2=80437945001990.1.2.3 r1=1.551 x1=0.49 length=0.029486 units=km normamps=114.0
new line.52873702 phases=3 bus1=80437975001990.1.2.3 bus2=80437965001990.1.2.3 r1=1.551 x1=0.49 length=0.033176 units=km normamps=114.0
new line.52873703 phases=3 bus1=80437985001990.1.2.3 bus2=80437975001990.1.2.3 r1=1.551 x1=0.49 length=0.038288 units=km normamps=114.0
new line.52873704 phases=3 bus1=80438465001990.1.2.3 bus2=80438455001990.1.2.3 r1=1.551 x1=0.49 length=0.024918 units=km normamps=114.0
new line.52873705 phases=3 bus1=80438475001990.1.2.3 bus2=80438465001990.1.2.3 r1=1.551 x1=0.49 length=0.008574 units=km normamps=114.0
new line.52873706 phases=3 bus1=80438505001990.1.2.3 bus2=80438465001990.1.2.3 r1=1.551 x1=0.49 length=0.032914 units=km normamps=114.0
new line.52873707 phases=3 bus1=80438455001990.1.2.3 bus2=80438515001990.1.2.3 r1=1.551 x1=0.49 length=0.023517 units=km normamps=114.0
new line.52873708 phases=3 bus1=80438515001990.1.2.3 bus2=80438525001990.1.2.3 r1=1.551 x1=0.49 length=0.018626 units=km normamps=114.0
new line.52873709 phases=3 bus1=80438525001990.1.2.3 bus2=80438545001990.1.2.3 r1=1.551 x1=0.49 length=0.022855 units=km normamps=114.0
new line.52873710 phases=3 bus1=80438545001990.1.2.3 bus2=80437185001990B.1.2.3 r1=1.551 x1=0.49 length=0.042008 units=km normamps=114.0
new line.52873711 phases=3 bus1=80438565001990.1.2.3 bus2=80437175001990.1.2.3 r1=0.195 x1=0.4 length=0.031287 units=km normamps=419.0
new line.52873712 phases=3 bus1=80438025001990.1.2.3 bus2=80438015001990.1.2.3 r1=1.551 x1=0.49 length=0.041123 units=km normamps=114.0
new line.52873713 phases=3 bus1=80438035001990.1.2.3 bus2=80438025001990.1.2.3 r1=1.551 x1=0.49 length=0.007803 units=km normamps=114.0
new line.52873714 phases=3 bus1=80438045001990.1.2.3 bus2=80438025001990.1.2.3 r1=1.551 x1=0.49 length=0.040858 units=km normamps=114.0
new line.52873715 phases=3 bus1=80438055001990.1.2.3 bus2=80438045001990.1.2.3 r1=1.551 x1=0.49 length=0.026996 units=km normamps=114.0
new line.52873716 phases=3 bus1=80438075001990.1.2.3 bus2=80438065001990.1.2.3 r1=1.551 x1=0.49 length=0.007608 units=km normamps=114.0
new line.52873717 phases=3 bus1=80438095001990.1.2.3 bus2=80438105001990.1.2.3 r1=1.551 x1=0.49 length=0.028064 units=km normamps=114.0
new line.52873718 phases=3 bus1=80438105001990.1.2.3 bus2=80438115001990.1.2.3 r1=1.551 x1=0.49 length=0.031555 units=km normamps=114.0
new line.52873719 phases=3 bus1=80438115001990.1.2.3 bus2=80438125001990.1.2.3 r1=1.551 x1=0.49 length=0.052894 units=km normamps=114.0
new line.52873720 phases=3 bus1=80438125001990.1.2.3 bus2=80435965001990.1.2.3 r1=1.551 x1=0.49 length=0.0405 units=km normamps=114.0
...

! 3. Chaves Seccionadoras MT
new line.SC_5270533 phases=3 bus1=80435405001990.1.2.3 bus2=80435405001990B.1.2.3 switch=y r1=1e-4 x1=1e-4 length=0.001 units=km
new line.SC_5270534 phases=3 bus1=80436615001990.1.2.3 bus2=80436615001990B.1.2.3 switch=y r1=1e-4 x1=1e-4 length=0.001 units=km
new line.SC_5270535 phases=3 bus1=80437575001990.1.2.3 bus2=80437575001990B.1.2.3 switch=y r1=1e-4 x1=1e-4 length=0.001 units=km
new line.SC_5270536 phases=3 bus1=80436175001990.1.2.3 bus2=80436175001990B.1.2.3 switch=y r1=1e-4 x1=1e-4 length=0.001 units=km
new line.SC_5270537 phases=3 bus1=80438995001990.1.2.3 bus2=80438995001990B.1.2.3 switch=y r1=1e-4 x1=1e-4 length=0.001 units=km
new line.SC_5270549 phases=3 bus1=80433815001990.1.2.3 bus2=80433815001990B.1.2.3 switch=y r1=1e-4 x1=1e-4 length=0.001 units=km
new line.SC_5270550 phases=3 bus1=80434025001990.1.2.3 bus2=80434025001990B.1.2.3 switch=y r1=1e-4 x1=1e-4 length=0.001 units=km
new line.SC_5270551 phases=3 bus1=80434065001990.1.2.3 bus2=80434065001990B.1.2.3 switch=y r1=1e-4 x1=1e-4 length=0.001 units=km
new line.SC_5270552 phases=3 bus1=80434135001990.1.2.3 bus2=80434135001990B.1.2.3 switch=y r1=1e-4 x1=1e-4 length=0.001 units=km
new line.SC_5270553 phases=3 bus1=80434435001990.1.2.3 bus2=80434435001990B.1.2.3 switch=y r1=1e-4 x1=1e-4 length=0.001 units=km
new line.SC_5270554 phases=3 bus1=80436565001990.1.2.3 bus2=80436565001990B.1.2.3 switch=y r1=1e-4 x1=1e-4 length=0.001 units=km
new line.SC_5270555 phases=3 bus1=80437635001990.1.2.3 bus2=80437635001990B.1.2.3 switch=y r1=1e-4 x1=1e-4 length=0.001 units=km
new line.SC_5270558 phases=3 bus1=80437805001990.1.2.3 bus2=80437805001990B.1.2.3 switch=y r1=1e-4 x1=1e-4 length=0.001 units=km
new line.SC_5270559 phases=3 bus1=80437185001990.1.2.3 bus2=80437185001990B.1.2.3 switch=y r1=1e-4 x1=1e-4 length=0.001 units=km
new line.SC_5270560 phases=3 bus1=80435985001990.1.2.3 bus2=80435985001990B.1.2.3 switch=y r1=1e-4 x1=1e-4 length=0.001 units=km
new line.SC_5291495 phases=3 bus1=80439245001990.1.2.3 bus2=80439245001990B.1.2.3 switch=y r1=1e-4 x1=1e-4 length=0.001 units=km
new line.SC_5295161 phases=3 bus1=82569685001990.1.2.3 bus2=82569685001990B.1.2.3 switch=y r1=1e-4 x1=1e-4 length=0.001 units=km
new line.SC_5298828 phases=3 bus1=80435475001990.1.2.3 bus2=80435475001990B.1.2.3 switch=y r1=1e-4 x1=1e-4 length=0.001 units=km
new line.SC_5343649 phases=3 bus1=85910645001990.1.2.3 bus2=85910645001990B.1.2.3 switch=y r1=1e-4 x1=1e-4 length=0.001 units=km
new line.SC_5547227 phases=3 bus1=82875155001990.1.2.3 bus2=82875155001990B.1.2.3 switch=y r1=1e-4 x1=1e-4 length=0.001 units=km
new line.SC_5547228 phases=3 bus1=90008405001990.1.2.3 bus2=90008405001990B.1.2.3 switch=y r1=1e-4 x1=1e-4 length=0.001 units=km
open line.SC_5547228 1
new line.SC_5547229 phases=3 bus1=90008385001990.1.2.3 bus2=90008385001990B.1.2.3 switch=y r1=1e-4 x1=1e-4 length=0.001 units=km
new line.SC_5547230 phases=3 bus1=90008375001990.1.2.3 bus2=90008375001990B.1.2.3 switch=y r1=1e-4 x1=1e-4 length=0.001 units=km
new line.SC_5547737 phases=3 bus1=93298445001990.1.2.3 bus2=93298445001990B.1.2.3 switch=y r1=1e-4 x1=1e-4 length=0.001 units=km
open line.SC_5547737 1
new line.SC_5547739 phases=3 bus1=93298205001990.1.2.3 bus2=93298205001990B.1.2.3 switch=y r1=1e-4 x1=1e-4 length=0.001 units=km
new line.SC_5549197 phases=3 bus1=90055665001990.1.2.3 bus2=90055665001990B.1.2.3 switch=y r1=1e-4 x1=1e-4 length=0.001 units=km
new line.SC_5549199 phases=3 bus1=90055675001990.1.2.3 bus2=90055675001990B.1.2.3 switch=y r1=1e-4 x1=1e-4 length=0.001 units=km
open line.SC_5549199 1
new line.SC_5582500 phases=3 bus1=91048675001990.1.2.3 bus2=91048675001990B.1.2.3 switch=y r1=1e-4 x1=1e-4 length=0.001 units=km
new line.SC_5583129 phases=3 bus1=91048895001990.1.2.3 bus2=91048895001990B.1.2.3 switch=y r1=1e-4 x1=1e-4 length=0.001 units=km
open line.SC_5583129 1
new line.SC_5583130 phases=3 bus1=91048885001990.1.2.3 bus2=91048885001990B.1.2.3 switch=y r1=1e-4 x1=1e-4 length=0.001 units=km
new line.SC_5608246 phases=3 bus1=90133155001990.1.2.3 bus2=90133155001990B.1.2.3 switch=y r1=1e-4 x1=1e-4 length=0.001 units=km
open line.SC_5608246 1
new line.SC_5653659 phases=3 bus1=93338685001990.1.2.3 bus2=93338685001990B.1.2.3 switch=y r1=1e-4 x1=1e-4 length=0.001 units=km
open line.SC_5653659 1
new line.SC_5656525 phases=3 bus1=80336715001990.1.2.3 bus2=80336715001990B.1.2.3 switch=y r1=1e-4 x1=1e-4 length=0.001 units=km
open line.SC_5656525 1
new line.SC_5656537 phases=3 bus1=80433805001990.1.2.3 bus2=80433805001990B.1.2.3 switch=y r1=1e-4 x1=1e-4 length=0.001 units=km
open line.SC_5656537 1
new line.SC_5659875 phases=3 bus1=80435975001990.1.2.3 bus2=80435975001990B.1.2.3 switch=y r1=1e-4 x1=1e-4 length=0.001 units=km
new line.SC_5674072 phases=3 bus1=93918955001990.1.2.3 bus2=93918955001990B.1.2.3 switch=y r1=1e-4 x1=1e-4 length=0.001 units=km
open line.SC_5674072 1
new line.SC_5674073 phases=3 bus1=93918985001990.1.2.3 bus2=93918985001990B.1.2.3 switch=y r1=1e-4 x1=1e-4 length=0.001 units=km
new line.SC_5674075 phases=3 bus1=93918975001990.1.2.3 bus2=93918975001990B.1.2.3 switch=y r1=1e-4 x1=1e-4 length=0.001 units=km
new line.SC_5674076 phases=3 bus1=93919145001990.1.2.3 bus2=93919145001990B.1.2.3 switch=y r1=1e-4 x1=1e-4 length=0.001 units=km
new line.SC_5688833 phases=3 bus1=80439965001990.1.2.3 bus2=80439965001990B.1.2.3 switch=y r1=1e-4 x1=1e-4 length=0.001 units=km
new line.SC_5688834 phases=3 bus1=94312615001990.1.2.3 bus2=94312615001990B.1.2.3 switch=y r1=1e-4 x1=1e-4 length=0.001 units=km
new line.SC_5702968 phases=3 bus1=94575405001990.1.2.3 bus2=94575405001990B.1.2.3 switch=y r1=1e-4 x1=1e-4 length=0.001 units=km
new line.SC_5702998 phases=3 bus1=94575735001990.1.2.3 bus2=94575735001990B.1.2.3 switch=y r1=1e-4 x1=1e-4 length=0.001 units=km
open line.SC_5702998 1
new line.SC_5705140 phases=3 bus1=94625825001990.1.2.3 bus2=94625825001990B.1.2.3 switch=y r1=1e-4 x1=1e-4 length=0.001 units=km
new line.SC_5705149 phases=3 bus1=94626035001990.1.2.3 bus2=94626035001990B.1.2.3 switch=y r1=1e-4 x1=1e-4 length=0.001 units=km
open line.SC_5705149 1
new line.SC_5717339 phases=3 bus1=94991635001990.1.2.3 bus2=94991635001990B.1.2.3 switch=y r1=1e-4 x1=1e-4 length=0.001 units=km
open line.SC_5717339 1
new line.SC_5717340 phases=3 bus1=94991665001990.1.2.3 bus2=94991665001990B.1.2.3 switch=y r1=1e-4 x1=1e-4 length=0.001 units=km
open line.SC_5717340 1
new line.SC_5719101 phases=3 bus1=95133675001990.1.2.3 bus2=95133675001990B.1.2.3 switch=y r1=1e-4 x1=1e-4 length=0.001 units=km
open line.SC_5719101 1
new line.SC_5719102 phases=3 bus1=95133695001990.1.2.3 bus2=95133695001990B.1.2.3 switch=y r1=1e-4 x1=1e-4 length=0.001 units=km
open line.SC_5719102 1
new line.SC_5720635 phases=3 bus1=95204015001990.1.2.3 bus2=95204015001990B.1.2.3 switch=y r1=1e-4 x1=1e-4 length=0.001 units=km
open line.SC_5720635 1
new line.SC_5720654 phases=3 bus1=95203975001990.1.2.3 bus2=95203975001990B.1.2.3 switch=y r1=1e-4 x1=1e-4 length=0.001 units=km
new line.SC_5721869 phases=3 bus1=95237135001990.1.2.3 bus2=95237135001990B.1.2.3 switch=y r1=1e-4 x1=1e-4 length=0.001 units=km
open line.SC_5721869 1
new line.SC_5722515 phases=3 bus1=80440165001990.1.2.3 bus2=80440165001990B.1.2.3 switch=y r1=1e-4 x1=1e-4 length=0.001 units=km
new line.SC_5722516 phases=3 bus1=95237105001990.1.2.3 bus2=95237105001990B.1.2.3 switch=y r1=1e-4 x1=1e-4 length=0.001 units=km
open line.SC_5722516 1
new line.SC_5723489 phases=3 bus1=95330205001990.1.2.3 bus2=95330205001990B.1.2.3 switch=y r1=1e-4 x1=1e-4 length=0.001 units=km
new line.SC_5723497 phases=3 bus1=95330245001990.1.2.3 bus2=95330245001990B.1.2.3 switch=y r1=1e-4 x1=1e-4 length=0.001 units=km
open line.SC_5723497 1
new line.SC_5733533 phases=3 bus1=82567575001990.1.2.3 bus2=82567575001990B.1.2.3 switch=y r1=1e-4 x1=1e-4 length=0.001 units=km
new line.SC_5739509 phases=3 bus1=82568465001990.1.2.3 bus2=82568465001990B.1.2.3 switch=y r1=1e-4 x1=1e-4 length=0.001 units=km
new line.SC_5739510 phases=3 bus1=82568615001990.1.2.3 bus2=82568615001990B.1.2.3 switch=y r1=1e-4 x1=1e-4 length=0.001 units=km
new line.SC_5740063 phases=3 bus1=96025335001990.1.2.3 bus2=96025335001990B.1.2.3 switch=y r1=1e-4 x1=1e-4 length=0.001 units=km
open line.SC_5740063 1
new line.SC_5740064 phases=3 bus1=96025315001990.1.2.3 bus2=96025315001990B.1.2.3 switch=y r1=1e-4 x1=1e-4 length=0.001 units=km
new line.SC_5749023 phases=3 bus1=82568975001990.1.2.3 bus2=82568975001990B.1.2.3 switch=y r1=1e-4 x1=1e-4 length=0.001 units=km
open line.SC_5749023 1
new line.SC_5757309 phases=3 bus1=96929155001990.1.2.3 bus2=96929155001990B.1.2.3 switch=y r1=1e-4 x1=1e-4 length=0.001 units=km
open line.SC_5757309 1
new line.SC_5762186 phases=3 bus1=97150185001990.1.2.3 bus2=97150185001990B.1.2.3 switch=y r1=1e-4 x1=1e-4 length=0.001 units=km
open line.SC_5762186 1
new line.SC_5782147 phases=3 bus1=97851425001990.1.2.3 bus2=97851425001990B.1.2.3 switch=y r1=1e-4 x1=1e-4 length=0.001 units=km
open line.SC_5782147 1
new line.SC_5782148 phases=3 bus1=97851415001990.1.2.3 bus2=97851415001990B.1.2.3 switch=y r1=1e-4 x1=1e-4 length=0.001 units=km
new line.SC_5798194 phases=3 bus1=82568265001990.1.2.3 bus2=82568265001990B.1.2.3 switch=y r1=1e-4 x1=1e-4 length=0.001 units=km
new line.SC_5806300 phases=3 bus1=82568725001990.1.2.3 bus2=82568725001990B.1.2.3 switch=y r1=1e-4 x1=1e-4 length=0.001 units=km
new line.SC_SA0002807 phases=3 bus1=SA0002807.1.2.3 bus2=SA0002807B.1.2.3 switch=y r1=1e-4 x1=1e-4 length=0.001 units=km
new line.SC_5814313 phases=3 bus1=82568555001990.1.2.3 bus2=82568555001990B.1.2.3 switch=y r1=1e-4 x1=1e-4 length=0.001 units=km
new line.SC_DB0000546 phases=3 bus1=I888888103435001990.1.2.3 bus2=I888888103435001990B.1.2.3 switch=y r1=1e-4 x1=1e-4 length=0.001 units=km
new line.SC_SA0002806 phases=3 bus1=GOLL049.1.2.3 bus2=GOLL024B.1.2.3 switch=y r1=1e-4 x1=1e-4 length=0.001 units=km

! 5. Transformadores MT/BT de Distribuicao
new transformer.UNTRMT_5270543 phases=3 windings=2 %r=1.55 xhl=3.14 kva=75.0
~ wdg=1 bus=80436315001990.1.2.3 conn=delta kv=13.8
~ wdg=2 bus=80436315270543.1.2.3.0 conn=wye kv=0.38

new transformer.UNTRMT_5270547 phases=3 windings=2 %r=1.46 xhl=3.18 kva=127.0
~ wdg=1 bus=80438565001990.1.2.3 conn=delta kv=13.8
~ wdg=2 bus=80438565270547.1.2.3.0 conn=wye kv=0.38

new transformer.UNTRMT_5270547_2 phases=3 windings=2 %r=1.97 xhl=1.55 kva=127.0
~ wdg=1 bus=80438565001990.1.2.3 conn=delta kv=13.79
~ wdg=2 bus=80438565270547_2.1.2.3.0 conn=wye kv=0.44

new transformer.UNTRMT_5270548 phases=1 windings=3 %r=2.08 xhl=1.39 xht=1.39 xlt=0.97 kva=10.0
~ wdg=1 bus=80440265001990.1 conn=wye kv=7.96 kva=10.0 %r=1.04
~ wdg=2 bus=80440265270548.1.0 conn=wye kv=0.22 kva=10.0 %r=1.04
~ wdg=3 bus=80440265270548.0.2 conn=wye kv=0.22 kva=10.0 %r=1.04

new transformer.UNTRMT_5270562 phases=3 windings=2 %r=1.55 xhl=3.14 kva=75.0
~ wdg=1 bus=80433845001990.1.2.3 conn=delta kv=13.8
~ wdg=2 bus=80433845270562.1.2.3.0 conn=wye kv=0.38

new transformer.UNTRMT_5270563 phases=3 windings=2 %r=1.46 xhl=3.18 kva=112.0
~ wdg=1 bus=80434115001990.1.2.3 conn=delta kv=13.8
~ wdg=2 bus=80434115270563.1.2.3.0 conn=wye kv=0.38

new transformer.UNTRMT_5270564 phases=3 windings=2 %r=1.46 xhl=3.18 kva=112.0
~ wdg=1 bus=80434195001990.1.2.3 conn=delta kv=13.8
~ wdg=2 bus=80434195270564.1.2.3.0 conn=wye kv=0.38

new transformer.UNTRMT_5270565 phases=3 windings=2 %r=1.39 xhl=3.21 kva=150.0
~ wdg=1 bus=80434245001990.1.2.3 conn=delta kv=13.8
~ wdg=2 bus=80434245270565.1.2.3.0 conn=wye kv=0.38

new transformer.UNTRMT_5270566 phases=3 windings=2 %r=1.46 xhl=3.18 kva=112.0
~ wdg=1 bus=80434485001990.1.2.3 conn=delta kv=13.8
~ wdg=2 bus=80434485270566.1.2.3.0 conn=wye kv=0.38

new transformer.UNTRMT_5270567 phases=3 windings=2 %r=1.46 xhl=3.18 kva=112.0
~ wdg=1 bus=80435125001990.1.2.3 conn=delta kv=13.8
~ wdg=2 bus=80435125270567.1.2.3.0 conn=wye kv=0.38

new transformer.UNTRMT_5270568 phases=3 windings=2 %r=1.55 xhl=3.14 kva=75.0
~ wdg=1 bus=80435455001990.1.2.3 conn=delta kv=13.8
~ wdg=2 bus=80435455270568.1.2.3.0 conn=wye kv=0.38

new transformer.UNTRMT_5270569 phases=3 windings=2 %r=1.68 xhl=3.07 kva=45.0
~ wdg=1 bus=80435535001990.1.2.3 conn=delta kv=13.8
~ wdg=2 bus=80435535270569.1.2.3.0 conn=wye kv=0.38

new transformer.UNTRMT_5270570 phases=3 windings=2 %r=1.46 xhl=3.18 kva=112.0
~ wdg=1 bus=80435865001990.1.2.3 conn=delta kv=13.8
~ wdg=2 bus=80435865270570.1.2.3.0 conn=wye kv=0.38

new transformer.UNTRMT_5270571 phases=3 windings=2 %r=1.55 xhl=3.14 kva=75.0
~ wdg=1 bus=80438315001990.1.2.3 conn=delta kv=13.8
~ wdg=2 bus=80438315270571.1.2.3.0 conn=wye kv=0.38

new transformer.UNTRMT_5270572 phases=3 windings=2 %r=1.55 xhl=3.14 kva=75.0
~ wdg=1 bus=80439625001990.1.2.3 conn=delta kv=13.8
~ wdg=2 bus=80439625270572.1.2.3.0 conn=wye kv=0.38

new transformer.UNTRMT_5270573 phases=3 windings=2 %r=1.55 xhl=3.14 kva=75.0
~ wdg=1 bus=80436335001990.1.2.3 conn=delta kv=13.8
~ wdg=2 bus=80436335270573.1.2.3.0 conn=wye kv=0.38

new transformer.UNTRMT_5270574 phases=3 windings=2 %r=1.46 xhl=3.18 kva=112.0
~ wdg=1 bus=80436385001990.1.2.3 conn=delta kv=13.8
~ wdg=2 bus=80436385270574.1.2.3.0 conn=wye kv=0.38

new transformer.UNTRMT_5270575 phases=3 windings=2 %r=1.68 xhl=3.07 kva=45.0
~ wdg=1 bus=80436535001990.1.2.3 conn=delta kv=13.8
~ wdg=2 bus=80436535270575.1.2.3.0 conn=wye kv=0.38

new transformer.UNTRMT_5270576 phases=3 windings=2 %r=1.68 xhl=3.07 kva=45.0
~ wdg=1 bus=80436585001990.1.2.3 conn=delta kv=13.8
~ wdg=2 bus=80436585270576.1.2.3.0 conn=wye kv=0.38

new transformer.UNTRMT_5270577 phases=3 windings=2 %r=1.55 xhl=3.14 kva=75.0
~ wdg=1 bus=80436715001990.1.2.3 conn=delta kv=13.8
~ wdg=2 bus=80436715270577.1.2.3.0 conn=wye kv=0.38

new transformer.UNTRMT_5270578 phases=3 windings=2 %r=1.39 xhl=3.21 kva=150.0
~ wdg=1 bus=80436765001990.1.2.3 conn=delta kv=13.8
~ wdg=2 bus=80436765270578.1.2.3.0 conn=wye kv=0.38

new transformer.UNTRMT_5270579 phases=3 windings=2 %r=1.55 xhl=3.14 kva=75.0
~ wdg=1 bus=80437235001990.1.2.3 conn=delta kv=13.8
~ wdg=2 bus=80437235270579.1.2.3.0 conn=wye kv=0.38

new transformer.UNTRMT_5270580 phases=3 windings=2 %r=1.68 xhl=3.07 kva=45.0
~ wdg=1 bus=80437315001990.1.2.3 conn=delta kv=13.8
~ wdg=2 bus=80437315270580.1.2.3.0 conn=wye kv=0.38

new transformer.UNTRMT_5270581 phases=3 windings=2 %r=1.55 xhl=3.14 kva=75.0
~ wdg=1 bus=80437595001990.1.2.3 conn=delta kv=13.8
~ wdg=2 bus=80437595270581.1.2.3.0 conn=wye kv=0.38

new transformer.UNTRMT_5270582 phases=3 windings=2 %r=1.78 xhl=3.01 kva=30.0
~ wdg=1 bus=80437685001990.1.2.3 conn=delta kv=13.8
~ wdg=2 bus=80437685270582.1.2.3.0 conn=wye kv=0.38

new transformer.UNTRMT_5270583 phases=3 windings=2 %r=1.46 xhl=3.18 kva=112.0
~ wdg=1 bus=80439545001990.1.2.3 conn=delta kv=13.8
~ wdg=2 bus=80439545270583.1.2.3.0 conn=wye kv=0.38

new transformer.UNTRMT_5270584 phases=3 windings=2 %r=1.55 xhl=3.14 kva=75.0
~ wdg=1 bus=80439265001990.1.2.3 conn=delta kv=13.8
~ wdg=2 bus=80439265270584.1.2.3.0 conn=wye kv=0.38

new transformer.UNTRMT_5270585 phases=3 windings=2 %r=1.46 xhl=3.18 kva=112.0
~ wdg=1 bus=80439335001990.1.2.3 conn=delta kv=13.8
~ wdg=2 bus=80439335270585.1.2.3.0 conn=wye kv=0.38

new transformer.UNTRMT_5270586 phases=3 windings=2 %r=1.46 xhl=3.18 kva=112.0
~ wdg=1 bus=80437975001990.1.2.3 conn=delta kv=13.8
~ wdg=2 bus=80437975270586.1.2.3.0 conn=wye kv=0.38

new transformer.UNTRMT_5270587 phases=3 windings=2 %r=1.68 xhl=3.07 kva=45.0
~ wdg=1 bus=80440335001990.1.2.3 conn=delta kv=13.8
~ wdg=2 bus=80440335270587.1.2.3.0 conn=wye kv=0.38

new transformer.UNTRMT_5270588 phases=3 windings=2 %r=1.55 xhl=3.14 kva=75.0
~ wdg=1 bus=80436235001990.1.2.3 conn=delta kv=13.8
~ wdg=2 bus=80436235270588.1.2.3.0 conn=wye kv=0.38

new transformer.UNTRMT_5270589 phases=3 windings=2 %r=1.46 xhl=3.18 kva=112.0
~ wdg=1 bus=80436265001990.1.2.3 conn=delta kv=13.8
~ wdg=2 bus=80436265270589.1.2.3.0 conn=wye kv=0.38

new transformer.UNTRMT_5270590 phases=3 windings=2 %r=1.46 xhl=3.18 kva=112.0
~ wdg=1 bus=80436825001990.1.2.3 conn=delta kv=13.8
~ wdg=2 bus=80436825270590.1.2.3.0 conn=wye kv=0.38

new transformer.UNTRMT_5270591 phases=3 windings=2 %r=1.46 xhl=3.18 kva=112.0
~ wdg=1 bus=80437785001990.1.2.3 conn=delta kv=13.8
~ wdg=2 bus=80437785270591.1.2.3.0 conn=wye kv=0.38

new transformer.UNTRMT_5270592 phases=3 windings=2 %r=1.68 xhl=3.07 kva=45.0
~ wdg=1 bus=80437825001990.1.2.3 conn=delta kv=13.8
~ wdg=2 bus=80437825270592.1.2.3.0 conn=wye kv=0.38

new transformer.UNTRMT_5270593 phases=3 windings=2 %r=1.46 xhl=3.18 kva=112.0
~ wdg=1 bus=80437885001990.1.2.3 conn=delta kv=13.8
~ wdg=2 bus=80437885270593.1.2.3.0 conn=wye kv=0.38

new transformer.UNTRMT_5270595 phases=3 windings=2 %r=1.55 xhl=3.14 kva=75.0
~ wdg=1 bus=80438475001990.1.2.3 conn=delta kv=13.8
~ wdg=2 bus=80438475270595.1.2.3.0 conn=wye kv=0.38

new transformer.UNTRMT_5270596 phases=3 windings=2 %r=1.68 xhl=3.07 kva=45.0
~ wdg=1 bus=80438505001990.1.2.3 conn=delta kv=13.8
~ wdg=2 bus=80438505270596.1.2.3.0 conn=wye kv=0.38

new transformer.UNTRMT_5270597 phases=3 windings=2 %r=1.46 xhl=3.18 kva=112.0
~ wdg=1 bus=80438905001990.1.2.3 conn=delta kv=13.8
~ wdg=2 bus=80438905270597.1.2.3.0 conn=wye kv=0.38

new transformer.UNTRMT_5270598 phases=3 windings=2 %r=1.55 xhl=3.14 kva=75.0
~ wdg=1 bus=80438925001990.1.2.3 conn=delta kv=13.8
~ wdg=2 bus=80438925270598.1.2.3.0 conn=wye kv=0.38

new transformer.UNTRMT_5270599 phases=3 windings=2 %r=1.46 xhl=3.18 kva=112.0
~ wdg=1 bus=80440135001990.1.2.3 conn=delta kv=13.8
~ wdg=2 bus=80440135270599.1.2.3.0 conn=wye kv=0.38

new transformer.UNTRMT_5270600 phases=3 windings=2 %r=1.46 xhl=3.18 kva=112.0
~ wdg=1 bus=80435575001990.1.2.3 conn=delta kv=13.8
~ wdg=2 bus=80435575270600.1.2.3.0 conn=wye kv=0.38

new transformer.UNTRMT_5270601 phases=3 windings=2 %r=1.78 xhl=3.01 kva=30.0
~ wdg=1 bus=80440305001990.1.2.3 conn=delta kv=13.8
~ wdg=2 bus=80440305270601.1.2.3.0 conn=wye kv=0.38

new transformer.UNTRMT_5284429 phases=3 windings=2 %r=1.46 xhl=3.18 kva=112.0
~ wdg=1 bus=81755105001990.1.2.3 conn=delta kv=13.8
~ wdg=2 bus=81755105284429.1.2.3.0 conn=wye kv=0.38

new transformer.UNTRMT_5291501 phases=3 windings=2 %r=1.55 xhl=3.14 kva=75.0
~ wdg=1 bus=82569275001990.1.2.3 conn=delta kv=13.8
~ wdg=2 bus=82569275291501.1.2.3.0 conn=wye kv=0.38

new transformer.UNTRMT_5291602 phases=3 windings=2 %r=1.68 xhl=3.07 kva=45.0
~ wdg=1 bus=82567525001990.1.2.3 conn=delta kv=13.8
~ wdg=2 bus=82567525291602.1.2.3.0 conn=wye kv=0.38

new transformer.UNTRMT_5291603 phases=3 windings=2 %r=1.68 xhl=3.07 kva=45.0
~ wdg=1 bus=82567325001990.1.2.3 conn=delta kv=13.8
~ wdg=2 bus=82567325291603.1.2.3.0 conn=wye kv=0.38

new transformer.UNTRMT_5291604 phases=3 windings=2 %r=1.68 xhl=3.07 kva=45.0
~ wdg=1 bus=82567735001990.1.2.3 conn=delta kv=13.8
~ wdg=2 bus=82567735291604.1.2.3.0 conn=wye kv=0.38

new transformer.UNTRMT_5291606 phases=3 windings=2 %r=1.46 xhl=3.18 kva=112.0
~ wdg=1 bus=82568985001990.1.2.3 conn=delta kv=13.8
~ wdg=2 bus=82568985291606.1.2.3.0 conn=wye kv=0.38

new transformer.UNTRMT_5291607 phases=3 windings=2 %r=1.46 xhl=3.18 kva=112.0
~ wdg=1 bus=82567435001990.1.2.3 conn=delta kv=13.8
~ wdg=2 bus=82567435291607.1.2.3.0 conn=wye kv=0.38

new transformer.UNTRMT_5291608 phases=3 windings=2 %r=1.55 xhl=3.14 kva=75.0
~ wdg=1 bus=82569175001990.1.2.3 conn=delta kv=13.8
~ wdg=2 bus=82569175291608.1.2.3.0 conn=wye kv=0.38

new transformer.UNTRMT_5291609 phases=3 windings=2 %r=1.55 xhl=3.14 kva=75.0
~ wdg=1 bus=82569335001990.1.2.3 conn=delta kv=13.8
~ wdg=2 bus=82569335291609.1.2.3.0 conn=wye kv=0.38

new transformer.UNTRMT_5291611 phases=3 windings=2 %r=1.78 xhl=3.01 kva=105.0
~ wdg=1 bus=82568545001990.1.2.3 conn=delta kv=13.8
~ wdg=2 bus=82568545291611.1.2.3.0 conn=wye kv=0.38

new transformer.UNTRMT_5291611_2 phases=3 windings=2 %r=1.55 xhl=3.14 kva=105.0
~ wdg=1 bus=82568545001990.1.2.3 conn=delta kv=13.8
~ wdg=2 bus=82568545291611_2.1.2.3.0 conn=wye kv=0.38

new transformer.UNTRMT_5291612 phases=3 windings=2 %r=1.68 xhl=3.07 kva=45.0
~ wdg=1 bus=82568575001990.1.2.3 conn=delta kv=13.8
~ wdg=2 bus=82568575291612.1.2.3.0 conn=wye kv=0.38

new transformer.UNTRMT_5291674 phases=3 windings=2 %r=1.78 xhl=3.01 kva=30.0
~ wdg=1 bus=82569655001990.1.2.3 conn=delta kv=13.8
~ wdg=2 bus=82569655291674.1.2.3.0 conn=wye kv=0.38

new transformer.UNTRMT_5338726 phases=3 windings=2 %r=1.46 xhl=3.18 kva=112.0
~ wdg=1 bus=85608645001990.1.2.3 conn=delta kv=13.8
~ wdg=2 bus=85608645338726.1.2.3.0 conn=wye kv=0.38

new transformer.UNTRMT_5343634 phases=3 windings=2 %r=1.78 xhl=3.01 kva=30.0
~ wdg=1 bus=85910705001990.1.2.3 conn=delta kv=13.8
~ wdg=2 bus=85910705343634.1.2.3.0 conn=wye kv=0.38

new transformer.UNTRMT_5502263 phases=3 windings=2 %r=1.78 xhl=3.01 kva=30.0
~ wdg=1 bus=82569705001990.1.2.3 conn=delta kv=13.8
~ wdg=2 bus=82569705502263.1.2.3.0 conn=wye kv=0.38

new transformer.UNTRMT_5555132 phases=3 windings=2 %r=1.68 xhl=3.07 kva=45.0
~ wdg=1 bus=90287205001990.1.2.3 conn=delta kv=13.8
~ wdg=2 bus=90287205555132.1.2.3.0 conn=wye kv=0.38

new transformer.UNTRMT_5576132 phases=3 windings=2 %r=1.39 xhl=3.21 kva=150.0
~ wdg=1 bus=90908675001990.1.2.3 conn=delta kv=13.8
~ wdg=2 bus=90908675576132.1.2.3.0 conn=wye kv=0.38

new transformer.UNTRMT_5581337 phases=3 windings=2 %r=1.46 xhl=3.18 kva=112.0
~ wdg=1 bus=91032215001990.1.2.3 conn=delta kv=13.8
~ wdg=2 bus=91032215581337.1.2.3.0 conn=wye kv=0.38

new transformer.UNTRMT_5581338 phases=3 windings=2 %r=1.46 xhl=3.18 kva=112.0
~ wdg=1 bus=91032285001990.1.2.3 conn=delta kv=13.8
~ wdg=2 bus=91032285581338.1.2.3.0 conn=wye kv=0.38

new transformer.UNTRMT_5581339 phases=3 windings=2 %r=1.46 xhl=3.18 kva=112.0
~ wdg=1 bus=91032085001990.1.2.3 conn=delta kv=13.8
~ wdg=2 bus=91032085581339.1.2.3.0 conn=wye kv=0.38

new transformer.UNTRMT_5582497 phases=3 windings=2 %r=1.78 xhl=3.01 kva=30.0
~ wdg=1 bus=91048865001990.1.2.3 conn=delta kv=13.8
~ wdg=2 bus=91048865582497.1.2.3.0 conn=wye kv=0.38

new transformer.UNTRMT_5583286 phases=3 windings=2 %r=1.46 xhl=3.18 kva=75.0
~ wdg=1 bus=91066585001990.1.2.3 conn=delta kv=13.8
~ wdg=2 bus=91066585583286.1.2.3.0 conn=wye kv=0.38

new transformer.UNTRMT_5594047 phases=3 windings=2 %r=1.55 xhl=3.14 kva=75.0
~ wdg=1 bus=80436625001990.1.2.3 conn=delta kv=13.8
~ wdg=2 bus=80436625594047.1.2.3.0 conn=wye kv=0.38

new transformer.UNTRMT_5599841 phases=3 windings=2 %r=1.68 xhl=3.07 kva=45.0
~ wdg=1 bus=91048785001990.1.2.3 conn=delta kv=13.8
~ wdg=2 bus=91048785599841.1.2.3.0 conn=wye kv=0.38

new transformer.UNTRMT_5599842 phases=3 windings=2 %r=1.68 xhl=3.07 kva=45.0
~ wdg=1 bus=91048745001990.1.2.3 conn=delta kv=13.8
~ wdg=2 bus=91048745599842.1.2.3.0 conn=wye kv=0.38

new transformer.UNTRMT_5635044 phases=3 windings=2 %r=1.3 xhl=4.31 kva=225.0
~ wdg=1 bus=91048695001990.1.2.3 conn=delta kv=13.8
~ wdg=2 bus=91048695635044.1.2.3.0 conn=wye kv=0.38

new transformer.UNTRMT_5658235 phases=3 windings=2 %r=1.25 xhl=4.32 kva=300.0
~ wdg=1 bus=93472425001990.1.2.3 conn=delta kv=13.8
~ wdg=2 bus=93472425658235.1.2.3.0 conn=wye kv=0.38

! 6. Linhas de Baixa Tensao (BT)
new line.52873800 phases=3 bus1=80433785270562.1.2.3.0 bus2=80433755270562.1.2.3.0 r1=0.975 x1=0.47 length=0.012416 units=km normamps=152.0
new line.52873805 phases=3 bus1=80433755270562.1.2.3.0 bus2=80433855270562.1.2.3.0 r1=0.975 x1=0.47 length=0.028677 units=km normamps=152.0
new line.52873808 phases=3 bus1=80433875270562.1.2.3.0 bus2=80433885270562.1.2.3.0 r1=0.975 x1=0.47 length=0.016101 units=km normamps=152.0
new line.52873816 phases=3 bus1=80433975270562.1.2.3.0 bus2=80433965270562.1.2.3.0 r1=0.613 x1=0.45 length=0.036684 units=km normamps=203.0
new line.52873823 phases=3 bus1=80434105270562.1.2.3.0 bus2=80434035270562.1.2.3.0 r1=0.613 x1=0.45 length=0.031706 units=km normamps=203.0
new line.52873839 phases=3 bus1=80433605270563.1.2.3.0 bus2=80433675270563.1.2.3.0 r1=0.975 x1=0.47 length=0.03868 units=km normamps=152.0
new line.52873843 phases=3 bus1=80433695270563.1.2.3.0 bus2=80433705270563.1.2.3.0 r1=0.975 x1=0.47 length=0.034359 units=km normamps=152.0
new line.52873844 phases=3 bus1=80433705270563.1.2.3.0 bus2=80433715270563.1.2.3.0 r1=0.975 x1=0.47 length=0.025564 units=km normamps=152.0
new line.52873845 phases=3 bus1=80433715270563.1.2.3.0 bus2=80433725270563.1.2.3.0 r1=0.975 x1=0.47 length=0.036816 units=km normamps=152.0
new line.52873849 phases=3 bus1=80433805270563.1.2.3.0 bus2=93432685270563.1.2.3.0 r1=0.975 x1=0.47 length=0.015128 units=km normamps=152.0
new line.52873852 phases=3 bus1=80434065270563.1.2.3.0 bus2=80434095270563.1.2.3.0 r1=0.613 x1=0.45 length=0.049332 units=km normamps=203.0
new line.52873854 phases=3 bus1=80434115270563.1.2.3.0 bus2=80433745270563.1.2.3.0 r1=0.613 x1=0.45 length=0.029777 units=km normamps=203.0
new line.52873858 phases=3 bus1=80434135270564.1.2.3.0 bus2=80434125270564.1.2.3.0 r1=0.975 x1=0.47 length=0.02966 units=km normamps=152.0
new line.52873859 phases=3 bus1=80434175270564.1.2.3.0 bus2=80434135270564.1.2.3.0 r1=0.975 x1=0.47 length=0.029725 units=km normamps=152.0
new line.52873862 phases=3 bus1=80434205270564.1.2.3.0 bus2=80434195270564.1.2.3.0 r1=0.613 x1=0.45 length=0.037834 units=km normamps=203.0
new line.52873866 phases=3 bus1=80435675270564.1.2.3.0 bus2=80435665270564.1.2.3.0 r1=0.975 x1=0.47 length=0.011061 units=km normamps=152.0
new line.52873873 phases=3 bus1=80437085270565.1.2.3.0 bus2=80437045270565.1.2.3.0 r1=0.975 x1=0.47 length=0.0311 units=km normamps=152.0
new line.52873875 phases=3 bus1=80437105270565.1.2.3.0 bus2=80437095270565.1.2.3.0 r1=0.975 x1=0.47 length=0.032481 units=km normamps=152.0
new line.52873876 phases=3 bus1=80434855270565.1.2.3.0 bus2=80437105270565.1.2.3.0 r1=0.975 x1=0.47 length=0.044813 units=km normamps=152.0
new line.52873880 phases=3 bus1=80434735270565.1.2.3.0 bus2=80434765270565.1.2.3.0 r1=0.613 x1=0.45 length=0.018855 units=km normamps=203.0
new line.52873881 phases=3 bus1=80434765270565.1.2.3.0 bus2=80434775270565.1.2.3.0 r1=0.613 x1=0.45 length=0.032998 units=km normamps=203.0
new line.52873882 phases=3 bus1=80434775270565.1.2.3.0 bus2=80434305270565.1.2.3.0 r1=0.613 x1=0.45 length=0.02607 units=km normamps=203.0
new line.52873883 phases=3 bus1=80434735270565.1.2.3.0 bus2=80434785270565.1.2.3.0 r1=0.975 x1=0.47 length=0.00622 units=km normamps=152.0
new line.52873884 phases=3 bus1=80434785270565.1.2.3.0 bus2=80434795270565.1.2.3.0 r1=0.975 x1=0.47 length=0.030092 units=km normamps=152.0
new line.52873896 phases=3 bus1=80434235270565.1.2.3.0 bus2=80434255270565.1.2.3.0 r1=0.975 x1=0.47 length=0.009427 units=km normamps=152.0
new line.52873897 phases=3 bus1=80434245270565.1.2.3.0 bus2=80434255270565.1.2.3.0 r1=0.613 x1=0.45 length=0.034996 units=km normamps=203.0
new line.52873899 phases=3 bus1=80434265270565.1.2.3.0 bus2=80434245270565.1.2.3.0 r1=0.613 x1=0.45 length=0.032287 units=km normamps=203.0
new line.52873902 phases=3 bus1=80434155270565.1.2.3.0 bus2=80434265270565.1.2.3.0 r1=0.613 x1=0.45 length=0.048103 units=km normamps=203.0
new line.52873905 phases=3 bus1=80437025270565.1.2.3.0 bus2=80435825270565.1.2.3.0 r1=0.506 x1=0.1 length=0.014584 units=km normamps=157.0
new line.52873906 phases=3 bus1=80437035270565.1.2.3.0 bus2=80437025270565.1.2.3.0 r1=0.613 x1=0.45 length=0.055454 units=km normamps=203.0
new line.52873907 phases=3 bus1=80437035270565.1.2.3.0 bus2=80437045270565.1.2.3.0 r1=0.975 x1=0.47 length=0.017383 units=km normamps=152.0
new line.52873908 phases=3 bus1=80437045270565.1.2.3.0 bus2=80437055270565.1.2.3.0 r1=0.975 x1=0.47 length=0.014791 units=km normamps=152.0
new line.52873910 phases=3 bus1=80434055270566.1.2.3.0 bus2=80434315270566.1.2.3.0 r1=1.564 x1=0.51 length=0.042693 units=km normamps=120.0
new line.52873911 phases=3 bus1=80434325270566.1.2.3.0 bus2=80434075270566.1.2.3.0 r1=1.564 x1=0.51 length=0.028272 units=km normamps=120.0
new line.52873913 phases=3 bus1=80434315270566.1.2.3.0 bus2=80434365270566.1.2.3.0 r1=1.564 x1=0.51 length=0.040003 units=km normamps=120.0
new line.52873914 phases=3 bus1=80434365270566.1.2.3.0 bus2=80434375270566.1.2.3.0 r1=1.564 x1=0.51 length=0.024052 units=km normamps=120.0
new line.52873919 phases=3 bus1=80434425270566.1.2.3.0 bus2=80434415270566.1.2.3.0 r1=1.564 x1=0.51 length=0.016487 units=km normamps=120.0
new line.52873922 phases=3 bus1=80434445270566.1.2.3.0 bus2=80434455270566.1.2.3.0 r1=1.564 x1=0.51 length=0.015098 units=km normamps=120.0
new line.52873925 phases=3 bus1=80434475270566.1.2.3.0 bus2=80434335270566.1.2.3.0 r1=1.564 x1=0.51 length=0.043683 units=km normamps=120.0
new line.52873928 phases=3 bus1=80434505270566.1.2.3.0 bus2=80434495270566.1.2.3.0 r1=0.613 x1=0.45 length=0.01509 units=km normamps=203.0
new line.52873937 phases=3 bus1=80434715270566.1.2.3.0 bus2=80434725270566.1.2.3.0 r1=0.975 x1=0.47 length=0.032897 units=km normamps=152.0
new line.52873938 phases=3 bus1=80434875270566.1.2.3.0 bus2=80434865270566.1.2.3.0 r1=0.975 x1=0.47 length=0.032738 units=km normamps=152.0
new line.52873944 phases=3 bus1=80434925270566.1.2.3.0 bus2=80434935270566.1.2.3.0 r1=0.613 x1=0.45 length=0.02651 units=km normamps=203.0
new line.52873952 phases=3 bus1=80434985270567.1.2.3.0 bus2=80434965270567.1.2.3.0 r1=0.613 x1=0.45 length=0.031962 units=km normamps=203.0
new line.52873956 phases=3 bus1=80435095270567.1.2.3.0 bus2=80435105270567.1.2.3.0 r1=0.975 x1=0.47 length=0.033182 units=km normamps=152.0
new line.52873957 phases=3 bus1=80435105270567.1.2.3.0 bus2=80434985270567.1.2.3.0 r1=0.975 x1=0.47 length=0.030213 units=km normamps=152.0
new line.52873958 phases=3 bus1=80435115270567.1.2.3.0 bus2=80434985270567.1.2.3.0 r1=0.613 x1=0.45 length=0.021489 units=km normamps=203.0
new line.52873960 phases=3 bus1=80435135270567.1.2.3.0 bus2=80435125270567.1.2.3.0 r1=0.613 x1=0.45 length=0.026996 units=km normamps=203.0
new line.52873963 phases=3 bus1=80435165270567.1.2.3.0 bus2=80435155270567.1.2.3.0 r1=0.975 x1=0.47 length=0.002895 units=km normamps=152.0
new line.52873964 phases=3 bus1=80435155270567.1.2.3.0 bus2=80435175270567.1.2.3.0 r1=0.975 x1=0.47 length=0.012306 units=km normamps=152.0
new line.52873968 phases=3 bus1=80435765270567.1.2.3.0 bus2=80435755270567.1.2.3.0 r1=0.975 x1=0.47 length=0.036022 units=km normamps=152.0
new line.52873975 phases=3 bus1=80435825270567.1.2.3.0 bus2=80435815270567.1.2.3.0 r1=0.991 x1=0.1 length=0.029654 units=km normamps=100.0
new line.52873981 phases=3 bus1=80435345270568.1.2.3.0 bus2=80435335270568.1.2.3.0 r1=0.991 x1=0.1 length=0.030346 units=km normamps=100.0
new line.52873983 phases=3 bus1=80435365270568.1.2.3.0 bus2=80435325270568.1.2.3.0 r1=0.991 x1=0.1 length=0.029711 units=km normamps=100.0
new line.52873990 phases=3 bus1=80435475270568.1.2.3.0 bus2=80435465270568.1.2.3.0 r1=0.975 x1=0.47 length=0.00859 units=km normamps=152.0
new line.52873991 phases=3 bus1=80435245270568.1.2.3.0 bus2=80435465270568.1.2.3.0 r1=0.506 x1=0.1 length=0.03303 units=km normamps=157.0
new line.52874000 phases=3 bus1=80435715270569.1.2.3.0 bus2=80435705270569.1.2.3.0 r1=0.975 x1=0.47 length=0.026763 units=km normamps=152.0
new line.52874004 phases=3 bus1=80437125270570.1.2.3.0 bus2=80437115270570.1.2.3.0 r1=0.975 x1=0.47 length=0.041148 units=km normamps=152.0
new line.52874008 phases=3 bus1=80435865270570.1.2.3.0 bus2=80435855270570.1.2.3.0 r1=0.613 x1=0.45 length=0.040117 units=km normamps=203.0
new line.52874012 phases=3 bus1=80434585270570.1.2.3.0 bus2=80434565270570.1.2.3.0 r1=0.975 x1=0.47 length=0.038938 units=km normamps=152.0
new line.52874014 phases=3 bus1=80434605270570.1.2.3.0 bus2=80434595270570.1.2.3.0 r1=0.975 x1=0.47 length=0.038438 units=km normamps=152.0
new line.52874015 phases=3 bus1=80434565270570.1.2.3.0 bus2=80434575270570.1.2.3.0 r1=0.975 x1=0.47 length=0.013643 units=km normamps=152.0
new line.52874017 phases=3 bus1=80434635270570.1.2.3.0 bus2=80434625270570.1.2.3.0 r1=0.975 x1=0.47 length=0.028516 units=km normamps=152.0
new line.52874018 phases=3 bus1=80434565270570.1.2.3.0 bus2=80434635270570.1.2.3.0 r1=0.975 x1=0.47 length=0.046007 units=km normamps=152.0
new line.52874019 phases=3 bus1=80434575270570.1.2.3.0 bus2=80434645270570.1.2.3.0 r1=0.975 x1=0.47 length=0.037052 units=km normamps=152.0
new line.52874025 phases=3 bus1=80434995270570.1.2.3.0 bus2=80435005270570.1.2.3.0 r1=0.975 x1=0.47 length=0.026227 units=km normamps=152.0
new line.52874027 phases=3 bus1=80435015270570.1.2.3.0 bus2=80435025270570.1.2.3.0 r1=0.975 x1=0.47 length=0.034767 units=km normamps=152.0
...